Version 4
SHEET 1 880 680
WIRE 96 0 0 0
WIRE 544 0 176 0
WIRE 464 48 128 48
WIRE 128 112 128 48
WIRE 464 112 464 48
WIRE 0 128 0 0
WIRE 0 128 -32 128
WIRE 16 128 0 128
WIRE 64 128 16 128
WIRE 272 160 224 160
WIRE 0 192 -32 192
WIRE 16 192 0 192
WIRE 64 192 16 192
WIRE -32 208 -32 192
WIRE 128 240 128 208
WIRE 352 240 128 240
WIRE 0 304 0 192
WIRE 96 304 0 304
WIRE 272 304 272 160
WIRE 272 304 176 304
FLAG 464 192 0
FLAG -112 128 0
FLAG 544 80 0
FLAG 272 160 vout
FLAG -112 208 0
FLAG 352 160 0
FLAG 16 128 V1
FLAG 16 192 v2
SYMBOL opamp2Offset 144 160 R0
WINDOW 0 36 -40 Bottom 2
SYMATTR InstName X1
SYMBOL voltage 464 96 R0
WINDOW 123 0 0 Left 0
WINDOW 39 0 0 Left 0
SYMATTR InstName V1
SYMATTR Value 12
SYMBOL res -16 112 R90
WINDOW 0 0 56 VBottom 2
WINDOW 3 32 56 VTop 2
SYMATTR InstName R1
SYMATTR Value 500
SYMBOL res -16 192 R90
WINDOW 0 0 56 VBottom 2
WINDOW 3 32 56 VTop 2
SYMATTR InstName R2
SYMATTR Value 500
SYMBOL res 192 288 R90
WINDOW 0 0 56 VBottom 2
WINDOW 3 32 56 VTop 2
SYMATTR InstName R3
SYMATTR Value 1Meg
SYMBOL res 192 -16 R90
WINDOW 0 0 56 VBottom 2
WINDOW 3 32 56 VTop 2
SYMATTR InstName R4
SYMATTR Value 1Meg
SYMBOL voltage 544 -16 R0
WINDOW 123 0 0 Left 0
WINDOW 39 0 0 Left 0
SYMATTR InstName V2
SYMATTR Value 0
SYMBOL voltage 352 144 R0
WINDOW 123 0 0 Left 0
WINDOW 39 0 0 Left 0
SYMATTR InstName V3
SYMATTR Value 12
TEXT 312 336 Left 2 !.op
